
OS:Version,
  {6956224f-f29c-4f96-8a8c-e7fef72af43a}, !- Handle
  3.8.0;                                  !- Version Identifier

OS:Site,
  {78a5b675-5e8c-4381-a4ff-b30823d3c549}, !- Handle
  FORTALEZA/PINTO_MAR,                    !- Name
  -3.78,                                  !- Latitude {deg}
  -38.53,                                 !- Longitude {deg}
  -3,                                     !- Time Zone {hr}
  25,                                     !- Elevation {m}
  ;                                       !- Terrain

OS:YearDescription,
  {2b6cf01f-264b-4e96-b02b-636a5bf5a9e7}, !- Handle
  ,                                       !- Calendar Year
  Sunday;                                 !- Day of Week for Start Day

OS:ClimateZones,
  {43d9448d-8ac2-49b3-aec9-73d8e340e193}, !- Handle
  ASHRAE,                                 !- Climate Zone Institution Name 1
  ANSI/ASHRAE Standard 169,               !- Climate Zone Document Name 1
  2006,                                   !- Climate Zone Document Year 1
  ,                                       !- Climate Zone Value 1
  CEC,                                    !- Climate Zone Institution Name 2
  California Climate Zone Descriptions,   !- Climate Zone Document Name 2
  1995,                                   !- Climate Zone Document Year 2
  ;                                       !- Climate Zone Value 2

OS:Building,
  {e2679ad5-686a-4b34-a4ce-5fab349f466d}, !- Handle
  Building 1,                             !- Name
  ,                                       !- Building Sector Type
  -0,                                     !- North Axis {deg}
  ,                                       !- Nominal Floor to Floor Height {m}
  ,                                       !- Space Type Name
  ,                                       !- Default Construction Set Name
  ;                                       !- Default Schedule Set Name

OS:Facility,
  {b60f2a09-c041-4d23-9c0b-ab412ba168ce}; !- Handle

OS:SimulationControl,
  {356ae215-3747-4108-85f6-4e13e5041bcd}, !- Handle
  Yes,                                    !- Do Zone Sizing Calculation
  ,                                       !- Do System Sizing Calculation
  Yes,                                    !- Do Plant Sizing Calculation
  ,                                       !- Run Simulation for Sizing Periods
  ,                                       !- Run Simulation for Weather File Run Periods
  ,                                       !- Loads Convergence Tolerance Value {W}
  ,                                       !- Temperature Convergence Tolerance Value {deltaC}
  ,                                       !- Solar Distribution
  ,                                       !- Maximum Number of Warmup Days
  ,                                       !- Minimum Number of Warmup Days
  Yes;                                    !- Do HVAC Sizing Simulation for Sizing Periods

OS:Sizing:Parameters,
  {c9558fa7-6197-4aae-9dd7-d54285c52ab6}, !- Handle
  1.25,                                   !- Heating Sizing Factor
  1.15;                                   !- Cooling Sizing Factor

OS:Timestep,
  {12597c13-46b0-4e2f-a33c-582cfbbee4fa}, !- Handle
  1;                                      !- Number of Timesteps per Hour

OS:ShadowCalculation,
  {823f75f6-73d8-4040-bfb7-b8f301c99bb1}, !- Handle
  PolygonClipping,                        !- Shading Calculation Method
  ,                                       !- Shading Calculation Update Frequency Method
  20,                                     !- Shading Calculation Update Frequency
  15000,                                  !- Maximum Figures in Shadow Overlap Calculations
  ,                                       !- Polygon Clipping Algorithm
  512,                                    !- Pixel Counting Resolution
  ,                                       !- Sky Diffuse Modeling Algorithm
  No,                                     !- Output External Shading Calculation Results
  No,                                     !- Disable Self-Shading Within Shading Zone Groups
  No;                                     !- Disable Self-Shading From Shading Zone Groups to Other Zones

OS:HeatBalanceAlgorithm,
  {417ac566-c2ae-4518-bb8f-9cb3b2342990}, !- Handle
  ConductionTransferFunction,             !- Algorithm
  200;                                    !- Surface Temperature Upper Limit {C}

OS:RunPeriod,
  {2bd7b995-5162-4ef2-a98a-ee273bb383dd}, !- Handle
  Run Period 1,                           !- Name
  1,                                      !- Begin Month
  1,                                      !- Begin Day of Month
  12,                                     !- End Month
  31,                                     !- End Day of Month
  ,                                       !- Use Weather File Holidays and Special Days
  ,                                       !- Use Weather File Daylight Saving Period
  ,                                       !- Apply Weekend Holiday Rule
  ,                                       !- Use Weather File Rain Indicators
  ,                                       !- Use Weather File Snow Indicators
  ;                                       !- Number of Times Runperiod to be Repeated

OS:LifeCycleCost:Parameters,
  {7c49f4fe-36a0-4df5-91b1-4b45663ad3f9}, !- Handle
  FEMP,                                   !- Analysis Type
  ,                                       !- Discounting Convention
  ,                                       !- Inflation Approach
  0.03,                                   !- Real Discount Rate
  ,                                       !- Nominal Discount Rate
  ,                                       !- Inflation
  ,                                       !- Base Date Month
  ,                                       !- Base Date Year
  ,                                       !- Service Date Month
  ,                                       !- Service Date Year
  ,                                       !- Length of Study Period in Years
  ,                                       !- Tax Rate
  ,                                       !- Depreciation Method
  Yes;                                    !- Use NIST Fuel Escalation Rates

OS:DefaultScheduleSet,
  {08a00f44-2b74-4c17-894f-ba1e6109e729}, !- Handle
  189.1-2009 - Office - OpenOffice - CZ1-3 Schedule Set, !- Name
  ,                                       !- Hours of Operation Schedule Name
  {ae3a37c5-7db8-48f1-bf7b-043da7ee68b9}, !- Number of People Schedule Name
  {64200e81-6b5f-436e-8098-bab55a095c69}, !- People Activity Level Schedule Name
  {cd824715-e99e-4990-91e4-1a46021b6089}, !- Lighting Schedule Name
  {35e5573a-0214-4e9c-b4ab-51c810ceda6c}, !- Electric Equipment Schedule Name
  ,                                       !- Gas Equipment Schedule Name
  ,                                       !- Hot Water Equipment Schedule Name
  {0285fa9a-6ef6-446f-a12e-6c2c0be8cad7}, !- Infiltration Schedule Name
  ,                                       !- Steam Equipment Schedule Name
  ;                                       !- Other Equipment Schedule Name

OS:Rendering:Color,
  {35054e16-c415-4331-a9b3-6feb62da642d}, !- Handle
  Rendering Color 8,                      !- Name
  255,                                    !- Rendering Red Value
  0,                                      !- Rendering Green Value
  255,                                    !- Rendering Blue Value
  255;                                    !- Rendering Alpha Value

OS:DesignSpecification:OutdoorAir,
  {e1787d48-d6dd-4547-b8ea-42d6abc47fad}, !- Handle
  189.1-2009 - Office - OpenOffice - CZ1-3 Ventilation, !- Name
  Sum,                                    !- Outdoor Air Method
  0.009438948864,                         !- Outdoor Air Flow per Person {m3/s-person}
  ,                                       !- Outdoor Air Flow per Floor Area {m3/s-m2}
  ,                                       !- Outdoor Air Flow Rate {m3/s}
  ,                                       !- Outdoor Air Flow Air Changes per Hour {1/hr}
  ;                                       !- Outdoor Air Flow Rate Fraction Schedule Name

OS:Schedule:Ruleset,
  {ae3a37c5-7db8-48f1-bf7b-043da7ee68b9}, ! Handle
  Office Work Occ,                        ! Name
  {e250af3d-e1e9-4115-a06e-2743c715ebdb}, ! Schedule Type Limits Name
  {cac403a1-ccb7-43f2-bff9-bc8b4a3f10d3}, ! Default Day Schedule Name
  {5a47af52-b5b2-4c88-8774-566741bb0a35}, ! Summer Design Day Schedule Name
  {7cab94e2-532c-4e54-9ebe-54127b774a73}; ! Winter Design Day Schedule Name

OS:Schedule:Day,
  {cac403a1-ccb7-43f2-bff9-bc8b4a3f10d3}, !- Handle
  Office Bldg Occ Default Schedule,       !- Name
  {e250af3d-e1e9-4115-a06e-2743c715ebdb}, !- Schedule Type Limits Name
  No,                                     !- Interpolate to Timestep
  6,                                      !- Hour 1
  0,                                      !- Minute 1
  0,                                      !- Value Until Time 1
  7,                                      !- Hour 2
  0,                                      !- Minute 2
  0.100000001490116,                      !- Value Until Time 2
  8,                                      !- Hour 3
  0,                                      !- Minute 3
  0.200000002980232,                      !- Value Until Time 3
  12,                                     !- Hour 4
  0,                                      !- Minute 4
  0.850000023841858,                      !- Value Until Time 4
  13,                                     !- Hour 5
  0,                                      !- Minute 5
  0.5,                                    !- Value Until Time 5
  17,                                     !- Hour 6
  0,                                      !- Minute 6
  0.850000023841858,                      !- Value Until Time 6
  18,                                     !- Hour 7
  0,                                      !- Minute 7
  0.699999988079071,                      !- Value Until Time 7
  20,                                     !- Hour 8
  0,                                      !- Minute 8
  0.400000005960464,                      !- Value Until Time 8
  22,                                     !- Hour 9
  0,                                      !- Minute 9
  0.100000001490116,                      !- Value Until Time 9
  24,                                     !- Hour 10
  0,                                      !- Minute 10
  0.0500000007450581;                     !- Value Until Time 10

OS:Schedule:Day,
  {5a47af52-b5b2-4c88-8774-566741bb0a35}, !- Handle
  Office Bldg Occ Summer Design Day,      !- Name
  {e250af3d-e1e9-4115-a06e-2743c715ebdb}, !- Schedule Type Limits Name
  No,                                     !- Interpolate to Timestep
  6,                                      !- Hour 1
  0,                                      !- Minute 1
  0,                                      !- Value Until Time 1
  22,                                     !- Hour 2
  0,                                      !- Minute 2
  1,                                      !- Value Until Time 2
  24,                                     !- Hour 3
  0,                                      !- Minute 3
  0.050000000000000003;                   !- Value Until Time 3

OS:Schedule:Day,
  {7cab94e2-532c-4e54-9ebe-54127b774a73}, !- Handle
  Office Bldg Occ Winter Design Day,      !- Name
  {e250af3d-e1e9-4115-a06e-2743c715ebdb}, !- Schedule Type Limits Name
  No,                                     !- Interpolate to Timestep
  24,                                     !- Hour 1
  0,                                      !- Minute 1
  0;                                      !- Value Until Time 1

OS:Schedule:Rule,
  {92276d42-0099-4843-92df-df30af5f683d}, !- Handle
  Office Work Occ Rule 1,                 !- Name
  {ae3a37c5-7db8-48f1-bf7b-043da7ee68b9}, !- Schedule Ruleset Name
  0,                                      !- Rule Order
  {7d339317-6dfd-4bcf-969f-baa5a4ae2bfb}, !- Day Schedule Name
  Yes,                                    !- Apply Sunday
  No,                                     !- Apply Monday
  No,                                     !- Apply Tuesday
  No,                                     !- Apply Wednesday
  No,                                     !- Apply Thursday
  No,                                     !- Apply Friday
  No,                                     !- Apply Saturday
  DateRange,                              !- Date Specification Type
  1,                                      !- Start Month
  1,                                      !- Start Day
  12,                                     !- End Month
  31;                                     !- End Day

OS:Schedule:Rule,
  {bc42c154-5860-408e-97a9-abea8540beea}, !- Handle
  Office Work Occ Rule 2,                 !- Name
  {ae3a37c5-7db8-48f1-bf7b-043da7ee68b9}, !- Schedule Ruleset Name
  1,                                      !- Rule Order
  {5e2feeb4-517e-454a-bc2d-02bab9d79192}, !- Day Schedule Name
  No,                                     !- Apply Sunday
  No,                                     !- Apply Monday
  No,                                     !- Apply Tuesday
  No,                                     !- Apply Wednesday
  No,                                     !- Apply Thursday
  No,                                     !- Apply Friday
  Yes,                                    !- Apply Saturday
  DateRange,                              !- Date Specification Type
  1,                                      !- Start Month
  1,                                      !- Start Day
  12,                                     !- End Month
  31;                                     !- End Day

OS:Schedule:Day,
  {7d339317-6dfd-4bcf-969f-baa5a4ae2bfb}, !- Handle
  Office Bldg Occ Rule 1 Day Schedule,    !- Name
  {e250af3d-e1e9-4115-a06e-2743c715ebdb}, !- Schedule Type Limits Name
  No,                                     !- Interpolate to Timestep
  24,                                     !- Hour 1
  0,                                      !- Minute 1
  0;                                      !- Value Until Time 1

OS:Schedule:Day,
  {5e2feeb4-517e-454a-bc2d-02bab9d79192}, !- Handle
  Office Bldg Occ Rule 2 Day Schedule,    !- Name
  {e250af3d-e1e9-4115-a06e-2743c715ebdb}, !- Schedule Type Limits Name
  No,                                     !- Interpolate to Timestep
  6,                                      !- Hour 1
  0,                                      !- Minute 1
  0,                                      !- Value Until Time 1
  8,                                      !- Hour 2
  0,                                      !- Minute 2
  0.100000001490116,                      !- Value Until Time 2
  14,                                     !- Hour 3
  0,                                      !- Minute 3
  0.400000005960464,                      !- Value Until Time 3
  17,                                     !- Hour 4
  0,                                      !- Minute 4
  0.100000001490116,                      !- Value Until Time 4
  24,                                     !- Hour 5
  0,                                      !- Minute 5
  0;                                      !- Value Until Time 5

OS:Schedule:Ruleset,
  {64200e81-6b5f-436e-8098-bab55a095c69}, ! Handle
  Office Activity,                        ! Name
  {07207d96-298a-4813-ae57-846d481306bf}, ! Schedule Type Limits Name
  {b6addf12-0aaf-4385-a5cb-53f5ba6e8201}, ! Default Day Schedule Name
  {2ec54086-3475-4d93-8fef-a4b60c269984}, ! Summer Design Day Schedule Name
  {66ae023b-8983-4e43-ba02-796040330ebc}; ! Winter Design Day Schedule Name

OS:Schedule:Day,
  {b6addf12-0aaf-4385-a5cb-53f5ba6e8201}, !- Handle
  Office Activity Default Schedule,       !- Name
  {07207d96-298a-4813-ae57-846d481306bf}, !- Schedule Type Limits Name
  No,                                     !- Interpolate to Timestep
  24,                                     !- Hour 1
  0,                                      !- Minute 1
  132;                                    !- Value Until Time 1

OS:Schedule:Day,
  {2ec54086-3475-4d93-8fef-a4b60c269984}, !- Handle
  Office Activity Summer Design Day,      !- Name
  {07207d96-298a-4813-ae57-846d481306bf}, !- Schedule Type Limits Name
  No,                                     !- Interpolate to Timestep
  24,                                     !- Hour 1
  0,                                      !- Minute 1
  132;                                    !- Value Until Time 1

OS:Schedule:Day,
  {66ae023b-8983-4e43-ba02-796040330ebc}, !- Handle
  Office Activity Winter Design Day,      !- Name
  {07207d96-298a-4813-ae57-846d481306bf}, !- Schedule Type Limits Name
  No,                                     !- Interpolate to Timestep
  24,                                     !- Hour 1
  0,                                      !- Minute 1
  132;                                    !- Value Until Time 1

OS:Schedule:Ruleset,
  {cd824715-e99e-4990-91e4-1a46021b6089}, ! Handle
  Office Bldg Light,                      ! Name
  {e250af3d-e1e9-4115-a06e-2743c715ebdb}, ! Schedule Type Limits Name
  {63e8a9f9-d2d7-4400-82e4-037f972f1276}, ! Default Day Schedule Name
  {ba8ad35a-1208-4b05-95fb-63e4dc1da60a}, ! Summer Design Day Schedule Name
  {292de0a9-230a-4047-895e-5109362459d7}; ! Winter Design Day Schedule Name

OS:Schedule:Day,
  {63e8a9f9-d2d7-4400-82e4-037f972f1276}, !- Handle
  Office Bldg Light Default Schedule,     !- Name
  {e250af3d-e1e9-4115-a06e-2743c715ebdb}, !- Schedule Type Limits Name
  No,                                     !- Interpolate to Timestep
  5,                                      !- Hour 1
  0,                                      !- Minute 1
  0.05,                                   !- Value Until Time 1
  7,                                      !- Hour 2
  0,                                      !- Minute 2
  0.1,                                    !- Value Until Time 2
  8,                                      !- Hour 3
  0,                                      !- Minute 3
  0.3,                                    !- Value Until Time 3
  17,                                     !- Hour 4
  0,                                      !- Minute 4
  0.9,                                    !- Value Until Time 4
  18,                                     !- Hour 5
  0,                                      !- Minute 5
  0.7,                                    !- Value Until Time 5
  20,                                     !- Hour 6
  0,                                      !- Minute 6
  0.5,                                    !- Value Until Time 6
  22,                                     !- Hour 7
  0,                                      !- Minute 7
  0.3,                                    !- Value Until Time 7
  23,                                     !- Hour 8
  0,                                      !- Minute 8
  0.1,                                    !- Value Until Time 8
  24,                                     !- Hour 9
  0,                                      !- Minute 9
  0.05;                                   !- Value Until Time 9

OS:Schedule:Day,
  {ba8ad35a-1208-4b05-95fb-63e4dc1da60a}, !- Handle
  Office Bldg Light Summer Design Day,    !- Name
  {e250af3d-e1e9-4115-a06e-2743c715ebdb}, !- Schedule Type Limits Name
  No,                                     !- Interpolate to Timestep
  24,                                     !- Hour 1
  0,                                      !- Minute 1
  1;                                      !- Value Until Time 1

OS:Schedule:Day,
  {292de0a9-230a-4047-895e-5109362459d7}, !- Handle
  Office Bldg Light Winter Design Day,    !- Name
  {e250af3d-e1e9-4115-a06e-2743c715ebdb}, !- Schedule Type Limits Name
  No,                                     !- Interpolate to Timestep
  24,                                     !- Hour 1
  0,                                      !- Minute 1
  0;                                      !- Value Until Time 1

OS:Schedule:Rule,
  {318873b9-6e7a-4658-beca-8ab63887e83d}, !- Handle
  Office Bldg Light Rule 1,               !- Name
  {cd824715-e99e-4990-91e4-1a46021b6089}, !- Schedule Ruleset Name
  0,                                      !- Rule Order
  {d6731073-0c6c-4c1d-97b6-f2aace1f42b2}, !- Day Schedule Name
  Yes,                                    !- Apply Sunday
  No,                                     !- Apply Monday
  No,                                     !- Apply Tuesday
  No,                                     !- Apply Wednesday
  No,                                     !- Apply Thursday
  No,                                     !- Apply Friday
  No,                                     !- Apply Saturday
  DateRange,                              !- Date Specification Type
  1,                                      !- Start Month
  1,                                      !- Start Day
  12,                                     !- End Month
  31;                                     !- End Day

OS:Schedule:Rule,
  {56a56732-ae04-43bb-9c80-ccc87b50681c}, !- Handle
  Office Bldg Light Rule 2,               !- Name
  {cd824715-e99e-4990-91e4-1a46021b6089}, !- Schedule Ruleset Name
  1,                                      !- Rule Order
  {a8baf1c9-3eee-431f-9893-9b70a08d7d67}, !- Day Schedule Name
  No,                                     !- Apply Sunday
  No,                                     !- Apply Monday
  No,                                     !- Apply Tuesday
  No,                                     !- Apply Wednesday
  No,                                     !- Apply Thursday
  No,                                     !- Apply Friday
  Yes,                                    !- Apply Saturday
  DateRange,                              !- Date Specification Type
  1,                                      !- Start Month
  1,                                      !- Start Day
  12,                                     !- End Month
  31;                                     !- End Day

OS:Schedule:Day,
  {d6731073-0c6c-4c1d-97b6-f2aace1f42b2}, !- Handle
  Office Bldg Light Rule 1 Day Schedule,  !- Name
  {e250af3d-e1e9-4115-a06e-2743c715ebdb}, !- Schedule Type Limits Name
  No,                                     !- Interpolate to Timestep
  24,                                     !- Hour 1
  0,                                      !- Minute 1
  0.050000000000000003;                   !- Value Until Time 1

OS:Schedule:Day,
  {a8baf1c9-3eee-431f-9893-9b70a08d7d67}, !- Handle
  Office Bldg Light Rule 2 Day Schedule,  !- Name
  {e250af3d-e1e9-4115-a06e-2743c715ebdb}, !- Schedule Type Limits Name
  No,                                     !- Interpolate to Timestep
  6,                                      !- Hour 1
  0,                                      !- Minute 1
  0.050000000000000003,                   !- Value Until Time 1
  8,                                      !- Hour 2
  0,                                      !- Minute 2
  0.10000000000000001,                    !- Value Until Time 2
  14,                                     !- Hour 3
  0,                                      !- Minute 3
  0.5,                                    !- Value Until Time 3
  17,                                     !- Hour 4
  0,                                      !- Minute 4
  0.14999999999999999,                    !- Value Until Time 4
  24,                                     !- Hour 5
  0,                                      !- Minute 5
  0.050000000000000003;                   !- Value Until Time 5

OS:Schedule:Ruleset,
  {35e5573a-0214-4e9c-b4ab-51c810ceda6c}, ! Handle
  Office Bldg Equip,                      ! Name
  {e250af3d-e1e9-4115-a06e-2743c715ebdb}, ! Schedule Type Limits Name
  {01f52726-5d8a-4ed8-9785-88fc6c8bb5a1}, ! Default Day Schedule Name
  {abb35028-88d0-4e57-8779-6e2d5c592a76}, ! Summer Design Day Schedule Name
  {f5a5511b-9c85-48d5-a3ff-9452febd563b}; ! Winter Design Day Schedule Name

OS:Schedule:Day,
  {01f52726-5d8a-4ed8-9785-88fc6c8bb5a1}, !- Handle
  Office Bldg Equip Default Schedule,     !- Name
  {e250af3d-e1e9-4115-a06e-2743c715ebdb}, !- Schedule Type Limits Name
  No,                                     !- Interpolate to Timestep
  8,                                      !- Hour 1
  0,                                      !- Minute 1
  0.4,                                    !- Value Until Time 1
  12,                                     !- Hour 2
  0,                                      !- Minute 2
  0.9,                                    !- Value Until Time 2
  13,                                     !- Hour 3
  0,                                      !- Minute 3
  0.8,                                    !- Value Until Time 3
  17,                                     !- Hour 4
  0,                                      !- Minute 4
  0.9,                                    !- Value Until Time 4
  18,                                     !- Hour 5
  0,                                      !- Minute 5
  0.8,                                    !- Value Until Time 5
  20,                                     !- Hour 6
  0,                                      !- Minute 6
  0.6,                                    !- Value Until Time 6
  22,                                     !- Hour 7
  0,                                      !- Minute 7
  0.5,                                    !- Value Until Time 7
  24,                                     !- Hour 8
  0,                                      !- Minute 8
  0.4;                                    !- Value Until Time 8

OS:Schedule:Day,
  {abb35028-88d0-4e57-8779-6e2d5c592a76}, !- Handle
  Office Bldg Equip Summer Design Day,    !- Name
  {e250af3d-e1e9-4115-a06e-2743c715ebdb}, !- Schedule Type Limits Name
  No,                                     !- Interpolate to Timestep
  24,                                     !- Hour 1
  0,                                      !- Minute 1
  1;                                      !- Value Until Time 1

OS:Schedule:Day,
  {f5a5511b-9c85-48d5-a3ff-9452febd563b}, !- Handle
  Office Bldg Equip Winter Design Day,    !- Name
  {e250af3d-e1e9-4115-a06e-2743c715ebdb}, !- Schedule Type Limits Name
  No,                                     !- Interpolate to Timestep
  24,                                     !- Hour 1
  0,                                      !- Minute 1
  0;                                      !- Value Until Time 1

OS:Schedule:Rule,
  {4047b2ae-07f9-4800-970f-066ba5ef022a}, !- Handle
  Office Bldg Equip Rule 1,               !- Name
  {35e5573a-0214-4e9c-b4ab-51c810ceda6c}, !- Schedule Ruleset Name
  0,                                      !- Rule Order
  {22eda993-65e8-4c29-b582-0c4c4210b8fe}, !- Day Schedule Name
  Yes,                                    !- Apply Sunday
  No,                                     !- Apply Monday
  No,                                     !- Apply Tuesday
  No,                                     !- Apply Wednesday
  No,                                     !- Apply Thursday
  No,                                     !- Apply Friday
  No,                                     !- Apply Saturday
  DateRange,                              !- Date Specification Type
  1,                                      !- Start Month
  1,                                      !- Start Day
  12,                                     !- End Month
  31;                                     !- End Day

OS:Schedule:Rule,
  {18eaee3c-843f-4f70-a3b6-01e2c8f98bee}, !- Handle
  Office Bldg Equip Rule 2,               !- Name
  {35e5573a-0214-4e9c-b4ab-51c810ceda6c}, !- Schedule Ruleset Name
  1,                                      !- Rule Order
  {ae59ad4e-f08c-4b15-923f-b74767775b9c}, !- Day Schedule Name
  No,                                     !- Apply Sunday
  No,                                     !- Apply Monday
  No,                                     !- Apply Tuesday
  No,                                     !- Apply Wednesday
  No,                                     !- Apply Thursday
  No,                                     !- Apply Friday
  Yes,                                    !- Apply Saturday
  DateRange,                              !- Date Specification Type
  1,                                      !- Start Month
  1,                                      !- Start Day
  12,                                     !- End Month
  31;                                     !- End Day

OS:Schedule:Day,
  {22eda993-65e8-4c29-b582-0c4c4210b8fe}, !- Handle
  Office Bldg Equip Rule 1 Day Schedule,  !- Name
  {e250af3d-e1e9-4115-a06e-2743c715ebdb}, !- Schedule Type Limits Name
  No,                                     !- Interpolate to Timestep
  24,                                     !- Hour 1
  0,                                      !- Minute 1
  0.29999999999999999;                    !- Value Until Time 1

OS:Schedule:Day,
  {ae59ad4e-f08c-4b15-923f-b74767775b9c}, !- Handle
  Office Bldg Equip Rule 2 Day Schedule,  !- Name
  {e250af3d-e1e9-4115-a06e-2743c715ebdb}, !- Schedule Type Limits Name
  No,                                     !- Interpolate to Timestep
  6,                                      !- Hour 1
  0,                                      !- Minute 1
  0.29999999999999999,                    !- Value Until Time 1
  8,                                      !- Hour 2
  0,                                      !- Minute 2
  0.40000000000000002,                    !- Value Until Time 2
  14,                                     !- Hour 3
  0,                                      !- Minute 3
  0.5,                                    !- Value Until Time 3
  17,                                     !- Hour 4
  0,                                      !- Minute 4
  0.34999999999999998,                    !- Value Until Time 4
  24,                                     !- Hour 5